data_crystal

_cell_length_a 6.75880
_cell_length_b 15.19410
_cell_length_c 15.19410
_cell_angle_alpha 62.15890
_cell_angle_beta  81.47290
_cell_angle_gamma 98.52710

_symmetry_space_group_name_	'P 1'
_symmetry_space_group_name_H-M	'P 1'

loop_
_symmetry_equiv_pos_as_xyz
  x,y,z

loop_
_atom_site_label
_atom_site_type_symbol
_atom_site_fract_x
_atom_site_fract_y
_atom_site_fract_z
_atom_site_charge
Mg	Mg	0.38998 0.42024 0.31416 1.46700
Mg	Mg	0.70414 0.31416 0.26560 1.46600
Mg	Mg	0.96974 0.26560 0.42024 1.46600
Mg	Mg	0.61002 0.57976 0.68584 1.46600
Mg	Mg	0.29586 0.68584 0.73440 1.46600
Mg	Mg	0.03026 0.73440 0.57976 1.46600
C 	C 	0.76525 0.43803 0.38268 0.44900
C 	C 	0.89068 0.46229 0.44885 -0.23000
C 	C 	0.80888 0.53576 0.47642 -0.07800
C 	C 	0.06425 0.43793 0.46778 0.21600
C 	C 	0.14793 0.38268 0.17929 0.45000
C 	C 	0.33953 0.44885 0.08886 -0.22900
C 	C 	0.28530 0.47642 0.98782 -0.07800
C 	C 	0.53203 0.46778 0.09429 0.21500
C 	C 	0.32722 0.17929 0.43803 0.44900
C 	C 	0.42839 0.08886 0.46229 -0.23000
C 	C 	0.27312 0.98782 0.53576 -0.07800
C 	C 	0.62632 0.09429 0.43793 0.21800
C 	C 	0.23475 0.56197 0.61732 0.45100
C 	C 	0.10932 0.53771 0.55115 -0.23300
C 	C 	0.19112 0.46424 0.52358 -0.07200
C 	C 	0.93575 0.56207 0.53222 0.22000
C 	C 	0.85207 0.61732 0.82071 0.45200
C 	C 	0.66047 0.55115 0.91114 -0.23200
C 	C 	0.71470 0.52358 0.01218 -0.07100
C 	C 	0.46797 0.53222 0.90571 0.22000
C 	C 	0.67278 0.82071 0.56197 0.44900
C 	C 	0.57161 0.91114 0.53771 -0.23000
C 	C 	0.72688 0.01218 0.46424 -0.07800
C 	C 	0.37368 0.90571 0.56207 0.21800
O 	O 	0.60283 0.47502 0.36873 -0.53600
O 	O 	0.82030 0.38060 0.35240 -0.70400
O 	O 	0.13501 0.37149 0.43866 -0.64400
O 	O 	0.97156 0.36873 0.15625 -0.53700
O 	O 	0.17270 0.35240 0.26700 -0.70300
O 	O 	0.57367 0.43866 0.18985 -0.64400
O 	O 	0.12781 0.15625 0.47502 -0.53400
O 	O 	0.43970 0.26700 0.38060 -0.70300
O 	O 	0.76352 0.18985 0.37149 -0.64500
O 	O 	0.39717 0.52498 0.63127 -0.53400
O 	O 	0.17970 0.61940 0.64760 -0.70400
O 	O 	0.86499 0.62851 0.56134 -0.64400
O 	O 	0.02844 0.63127 0.84375 -0.53500
O 	O 	0.82730 0.64760 0.73300 -0.70300
O 	O 	0.42633 0.56134 0.81015 -0.64400
O 	O 	0.87219 0.84375 0.52498 -0.53400
O 	O 	0.56030 0.73300 0.61940 -0.70300
O 	O 	0.23648 0.81015 0.62851 -0.64500
H 	H 	0.66603 0.56129 0.45235 0.05800
H 	H 	0.11838 0.45235 0.98636 0.05800
H 	H 	0.10475 0.98636 0.56129 0.05600
H 	H 	0.32957 0.43019 0.54037 0.05100
H 	H 	0.86994 0.54037 0.02945 0.05200
H 	H 	0.89525 0.01364 0.43871 0.05600
